
---------- Begin Simulation Statistics ----------
simSeconds                                   0.000946                       # Number of seconds simulated (Second)
simTicks                                    946165000                       # Number of ticks simulated (Tick)
finalTick                                19841620861000                       # Number of ticks from beginning of simulation (restored from checkpoints and never reset) (Tick)
simFreq                                  1000000000000                       # The number of ticks per simulated second ((Tick/Second))
hostSeconds                                      0.68                       # Real time elapsed on the host (Second)
hostTickRate                               1396415191                       # The number of ticks simulated per host second (ticks/s) ((Tick/Second))
hostMemory                                     642144                       # Number of bytes of host memory used (Byte)
simInsts                                      1000012                       # Number of instructions simulated (Count)
simOps                                        1460672                       # Number of ops (including micro ops) simulated (Count)
hostInstRate                                  1475641                       # Simulator instruction rate (inst/s) ((Count/Second))
hostOpRate                                    2155375                       # Simulator op (including micro ops) rate (op/s) ((Count/Second))
system.clk_domain.clock                          1000                       # Clock period in ticks (Tick)
system.cpu.numCycles                               23                       # Number of cpu cycles simulated (Cycle)
system.cpu.cpi                               1.916667                       # CPI: cycles per instruction (core level) ((Cycle/Count))
system.cpu.ipc                               0.521739                       # IPC: instructions per cycle (core level) ((Count/Cycle))
system.cpu.numWorkItemsStarted                      0                       # Number of work items this cpu started (Count)
system.cpu.numWorkItemsCompleted                    0                       # Number of work items this cpu completed (Count)
system.cpu.commitStats0.numInsts                   12                       # Number of instructions committed (thread level) (Count)
system.cpu.commitStats0.numOps                     16                       # Number of ops (including micro ops) committed (thread level) (Count)
system.cpu.commitStats0.numInstsNotNOP              0                       # Number of instructions committed excluding NOPs or prefetches (Count)
system.cpu.commitStats0.numOpsNotNOP                0                       # Number of Ops (including micro ops) Simulated (Count)
system.cpu.commitStats0.cpi                  1.916667                       # CPI: cycles per instruction (thread level) ((Cycle/Count))
system.cpu.commitStats0.ipc                  0.521739                       # IPC: instructions per cycle (thread level) ((Count/Cycle))
system.cpu.commitStats0.numMemRefs                  0                       # Number of memory references committed (Count)
system.cpu.commitStats0.numFpInsts                 15                       # Number of float instructions (Count)
system.cpu.commitStats0.numIntInsts                 5                       # Number of integer instructions (Count)
system.cpu.commitStats0.numLoadInsts                2                       # Number of load instructions (Count)
system.cpu.commitStats0.numStoreInsts               2                       # Number of store instructions (Count)
system.cpu.commitStats0.numVecInsts                 0                       # Number of vector instructions (Count)
system.cpu.commitStats0.committedInstType::No_OpClass            0      0.00%      0.00% # Class of committed instruction. (Count)
system.cpu.commitStats0.committedInstType::IntAlu            3     18.75%     18.75% # Class of committed instruction. (Count)
system.cpu.commitStats0.committedInstType::IntMult            0      0.00%     18.75% # Class of committed instruction. (Count)
system.cpu.commitStats0.committedInstType::IntDiv            0      0.00%     18.75% # Class of committed instruction. (Count)
system.cpu.commitStats0.committedInstType::FloatAdd            1      6.25%     25.00% # Class of committed instruction. (Count)
system.cpu.commitStats0.committedInstType::FloatCmp            0      0.00%     25.00% # Class of committed instruction. (Count)
system.cpu.commitStats0.committedInstType::FloatCvt            0      0.00%     25.00% # Class of committed instruction. (Count)
system.cpu.commitStats0.committedInstType::FloatMult            0      0.00%     25.00% # Class of committed instruction. (Count)
system.cpu.commitStats0.committedInstType::FloatMultAcc            0      0.00%     25.00% # Class of committed instruction. (Count)
system.cpu.commitStats0.committedInstType::FloatDiv            0      0.00%     25.00% # Class of committed instruction. (Count)
system.cpu.commitStats0.committedInstType::FloatMisc            0      0.00%     25.00% # Class of committed instruction. (Count)
system.cpu.commitStats0.committedInstType::FloatSqrt            0      0.00%     25.00% # Class of committed instruction. (Count)
system.cpu.commitStats0.committedInstType::SimdAdd            0      0.00%     25.00% # Class of committed instruction. (Count)
system.cpu.commitStats0.committedInstType::SimdAddAcc            0      0.00%     25.00% # Class of committed instruction. (Count)
system.cpu.commitStats0.committedInstType::SimdAlu            0      0.00%     25.00% # Class of committed instruction. (Count)
system.cpu.commitStats0.committedInstType::SimdCmp            0      0.00%     25.00% # Class of committed instruction. (Count)
system.cpu.commitStats0.committedInstType::SimdCvt            0      0.00%     25.00% # Class of committed instruction. (Count)
system.cpu.commitStats0.committedInstType::SimdMisc            0      0.00%     25.00% # Class of committed instruction. (Count)
system.cpu.commitStats0.committedInstType::SimdMult            0      0.00%     25.00% # Class of committed instruction. (Count)
system.cpu.commitStats0.committedInstType::SimdMultAcc            0      0.00%     25.00% # Class of committed instruction. (Count)
system.cpu.commitStats0.committedInstType::SimdMatMultAcc            0      0.00%     25.00% # Class of committed instruction. (Count)
system.cpu.commitStats0.committedInstType::SimdShift            0      0.00%     25.00% # Class of committed instruction. (Count)
system.cpu.commitStats0.committedInstType::SimdShiftAcc            0      0.00%     25.00% # Class of committed instruction. (Count)
system.cpu.commitStats0.committedInstType::SimdDiv            0      0.00%     25.00% # Class of committed instruction. (Count)
system.cpu.commitStats0.committedInstType::SimdSqrt            0      0.00%     25.00% # Class of committed instruction. (Count)
system.cpu.commitStats0.committedInstType::SimdFloatAdd            5     31.25%     56.25% # Class of committed instruction. (Count)
system.cpu.commitStats0.committedInstType::SimdFloatAlu            0      0.00%     56.25% # Class of committed instruction. (Count)
system.cpu.commitStats0.committedInstType::SimdFloatCmp            0      0.00%     56.25% # Class of committed instruction. (Count)
system.cpu.commitStats0.committedInstType::SimdFloatCvt            0      0.00%     56.25% # Class of committed instruction. (Count)
system.cpu.commitStats0.committedInstType::SimdFloatDiv            0      0.00%     56.25% # Class of committed instruction. (Count)
system.cpu.commitStats0.committedInstType::SimdFloatMisc            0      0.00%     56.25% # Class of committed instruction. (Count)
system.cpu.commitStats0.committedInstType::SimdFloatMult            3     18.75%     75.00% # Class of committed instruction. (Count)
system.cpu.commitStats0.committedInstType::SimdFloatMultAcc            0      0.00%     75.00% # Class of committed instruction. (Count)
system.cpu.commitStats0.committedInstType::SimdFloatMatMultAcc            0      0.00%     75.00% # Class of committed instruction. (Count)
system.cpu.commitStats0.committedInstType::SimdFloatSqrt            0      0.00%     75.00% # Class of committed instruction. (Count)
system.cpu.commitStats0.committedInstType::SimdReduceAdd            0      0.00%     75.00% # Class of committed instruction. (Count)
system.cpu.commitStats0.committedInstType::SimdReduceAlu            0      0.00%     75.00% # Class of committed instruction. (Count)
system.cpu.commitStats0.committedInstType::SimdReduceCmp            0      0.00%     75.00% # Class of committed instruction. (Count)
system.cpu.commitStats0.committedInstType::SimdFloatReduceAdd            0      0.00%     75.00% # Class of committed instruction. (Count)
system.cpu.commitStats0.committedInstType::SimdFloatReduceCmp            0      0.00%     75.00% # Class of committed instruction. (Count)
system.cpu.commitStats0.committedInstType::SimdAes            0      0.00%     75.00% # Class of committed instruction. (Count)
system.cpu.commitStats0.committedInstType::SimdAesMix            0      0.00%     75.00% # Class of committed instruction. (Count)
system.cpu.commitStats0.committedInstType::SimdSha1Hash            0      0.00%     75.00% # Class of committed instruction. (Count)
system.cpu.commitStats0.committedInstType::SimdSha1Hash2            0      0.00%     75.00% # Class of committed instruction. (Count)
system.cpu.commitStats0.committedInstType::SimdSha256Hash            0      0.00%     75.00% # Class of committed instruction. (Count)
system.cpu.commitStats0.committedInstType::SimdSha256Hash2            0      0.00%     75.00% # Class of committed instruction. (Count)
system.cpu.commitStats0.committedInstType::SimdShaSigma2            0      0.00%     75.00% # Class of committed instruction. (Count)
system.cpu.commitStats0.committedInstType::SimdShaSigma3            0      0.00%     75.00% # Class of committed instruction. (Count)
system.cpu.commitStats0.committedInstType::SimdPredAlu            0      0.00%     75.00% # Class of committed instruction. (Count)
system.cpu.commitStats0.committedInstType::Matrix            0      0.00%     75.00% # Class of committed instruction. (Count)
system.cpu.commitStats0.committedInstType::MatrixMov            0      0.00%     75.00% # Class of committed instruction. (Count)
system.cpu.commitStats0.committedInstType::MatrixOP            0      0.00%     75.00% # Class of committed instruction. (Count)
system.cpu.commitStats0.committedInstType::MemRead            0      0.00%     75.00% # Class of committed instruction. (Count)
system.cpu.commitStats0.committedInstType::MemWrite            0      0.00%     75.00% # Class of committed instruction. (Count)
system.cpu.commitStats0.committedInstType::FloatMemRead            2     12.50%     87.50% # Class of committed instruction. (Count)
system.cpu.commitStats0.committedInstType::FloatMemWrite            2     12.50%    100.00% # Class of committed instruction. (Count)
system.cpu.commitStats0.committedInstType::IprAccess            0      0.00%    100.00% # Class of committed instruction. (Count)
system.cpu.commitStats0.committedInstType::InstPrefetch            0      0.00%    100.00% # Class of committed instruction. (Count)
system.cpu.commitStats0.committedInstType::VectorUnitStrideLoad            0      0.00%    100.00% # Class of committed instruction. (Count)
system.cpu.commitStats0.committedInstType::VectorUnitStrideStore            0      0.00%    100.00% # Class of committed instruction. (Count)
system.cpu.commitStats0.committedInstType::VectorUnitStrideMaskLoad            0      0.00%    100.00% # Class of committed instruction. (Count)
system.cpu.commitStats0.committedInstType::VectorUnitStrideMaskStore            0      0.00%    100.00% # Class of committed instruction. (Count)
system.cpu.commitStats0.committedInstType::VectorStridedLoad            0      0.00%    100.00% # Class of committed instruction. (Count)
system.cpu.commitStats0.committedInstType::VectorStridedStore            0      0.00%    100.00% # Class of committed instruction. (Count)
system.cpu.commitStats0.committedInstType::VectorIndexedLoad            0      0.00%    100.00% # Class of committed instruction. (Count)
system.cpu.commitStats0.committedInstType::VectorIndexedStore            0      0.00%    100.00% # Class of committed instruction. (Count)
system.cpu.commitStats0.committedInstType::VectorUnitStrideFaultOnlyFirstLoad            0      0.00%    100.00% # Class of committed instruction. (Count)
system.cpu.commitStats0.committedInstType::VectorWholeRegisterLoad            0      0.00%    100.00% # Class of committed instruction. (Count)
system.cpu.commitStats0.committedInstType::VectorWholeRegisterStore            0      0.00%    100.00% # Class of committed instruction. (Count)
system.cpu.commitStats0.committedInstType::VectorIntegerArith            0      0.00%    100.00% # Class of committed instruction. (Count)
system.cpu.commitStats0.committedInstType::VectorFloatArith            0      0.00%    100.00% # Class of committed instruction. (Count)
system.cpu.commitStats0.committedInstType::VectorFloatConvert            0      0.00%    100.00% # Class of committed instruction. (Count)
system.cpu.commitStats0.committedInstType::VectorIntegerReduce            0      0.00%    100.00% # Class of committed instruction. (Count)
system.cpu.commitStats0.committedInstType::VectorFloatReduce            0      0.00%    100.00% # Class of committed instruction. (Count)
system.cpu.commitStats0.committedInstType::VectorMisc            0      0.00%    100.00% # Class of committed instruction. (Count)
system.cpu.commitStats0.committedInstType::VectorIntegerExtension            0      0.00%    100.00% # Class of committed instruction. (Count)
system.cpu.commitStats0.committedInstType::VectorConfig            0      0.00%    100.00% # Class of committed instruction. (Count)
system.cpu.commitStats0.committedInstType::total           16                       # Class of committed instruction. (Count)
system.cpu.exec_context.thread_0.numMatAluAccesses            0                       # Number of matrix alu accesses (Count)
system.cpu.exec_context.thread_0.numCallsReturns            0                       # Number of times a function call or return occured (Count)
system.cpu.exec_context.thread_0.numMatInsts            0                       # Number of matrix instructions (Count)
system.cpu.exec_context.thread_0.numIdleCycles            0                       # Number of idle cycles (Cycle)
system.cpu.exec_context.thread_0.numBusyCycles           23                       # Number of busy cycles (Cycle)
system.cpu.exec_context.thread_0.notIdleFraction            1                       # Percentage of non-idle cycles (Ratio)
system.cpu.exec_context.thread_0.idleFraction            0                       # Percentage of idle cycles (Ratio)
system.cpu.executeStats0.numInsts                   0                       # Number of executed instructions (Count)
system.cpu.executeStats0.numNop                     0                       # Number of nop insts executed (Count)
system.cpu.executeStats0.numBranches                0                       # Number of branches executed (Count)
system.cpu.executeStats0.numLoadInsts               0                       # Number of load instructions executed (Count)
system.cpu.executeStats0.numStoreInsts              4                       # Number of stores executed (Count)
system.cpu.executeStats0.instRate                   0                       # Inst execution rate ((Count/Cycle))
system.cpu.executeStats0.numFpAluAccesses           15                       # Number of float alu accesses (Count)
system.cpu.executeStats0.numFpRegReads             30                       # Number of times the floating registers were read (Count)
system.cpu.executeStats0.numFpRegWrites            13                       # Number of times the floating registers were written (Count)
system.cpu.executeStats0.numIntAluAccesses            5                       # Number of integer alu accesses (Count)
system.cpu.executeStats0.numIntRegReads             4                       # Number of times the integer registers were read (Count)
system.cpu.executeStats0.numIntRegWrites            1                       # Number of times the integer registers were written (Count)
system.cpu.executeStats0.numMemRefs                 4                       # Number of memory refs (Count)
system.cpu.executeStats0.numMiscRegReads            5                       # Number of times the Misc registers were read (Count)
system.cpu.executeStats0.numVecAluAccesses            0                       # Number of vector alu accesses (Count)
system.cpu.executeStats0.numDiscardedOps            0                       # Number of ops (including micro ops) which were discarded before commit (Count)
system.cpu.fetchStats0.numInsts                    12                       # Number of instructions fetched (thread level) (Count)
system.cpu.fetchStats0.numOps                      16                       # Number of ops (including micro ops) fetched (thread level) (Count)
system.cpu.fetchStats0.fetchRate             0.521739                       # Number of inst fetches per cycle ((Count/Cycle))
system.cpu.fetchStats0.branchRate                   0                       # Number of branch fetches per cycle (Ratio)
system.cpu.fetchStats0.numFetchSuspends             0                       # Number of times Execute suspended instruction fetching (Count)
system.cpu.interrupts.clk_domain.clock           8000                       # Clock period in ticks (Tick)
system.cpu.mmu.dtb.rdAccesses                       2                       # TLB accesses on read requests (Count)
system.cpu.mmu.dtb.wrAccesses                       2                       # TLB accesses on write requests (Count)
system.cpu.mmu.dtb.rdMisses                         0                       # TLB misses on read requests (Count)
system.cpu.mmu.dtb.wrMisses                         0                       # TLB misses on write requests (Count)
system.cpu.mmu.dtb.walker.power_state.pwrStateResidencyTicks::UNDEFINED 19841620861000                       # Cumulative time (in ticks) in various power states (Tick)
system.cpu.mmu.itb.rdAccesses                       0                       # TLB accesses on read requests (Count)
system.cpu.mmu.itb.wrAccesses                      19                       # TLB accesses on write requests (Count)
system.cpu.mmu.itb.rdMisses                         0                       # TLB misses on read requests (Count)
system.cpu.mmu.itb.wrMisses                         0                       # TLB misses on write requests (Count)
system.cpu.mmu.itb.walker.power_state.pwrStateResidencyTicks::UNDEFINED 19841620861000                       # Cumulative time (in ticks) in various power states (Tick)
system.cpu.power_state.numTransitions               1                       # Number of power state transitions (Count)
system.cpu.power_state.pwrStateResidencyTicks::ON 19840674707500                       # Cumulative time (in ticks) in various power states (Tick)
system.cpu.power_state.pwrStateResidencyTicks::OFF    946153500                       # Cumulative time (in ticks) in various power states (Tick)
system.cpu.thread_0.numInsts                        0                       # Number of Instructions committed (Count)
system.cpu.thread_0.numOps                          0                       # Number of Ops committed (Count)
system.cpu.thread_0.numMemRefs                      0                       # Number of Memory References (Count)
system.cpu.workload.numSyscalls                     0                       # Number of system calls (Count)
system.cpu_clk_domain.clock                       500                       # Clock period in ticks (Tick)
system.cpu_voltage_domain.voltage                   1                       # Voltage in Volts (Volt)
system.mem_ctrls.priorityMinLatency      0.000000000000                       # per QoS priority minimum request to response latency (Second)
system.mem_ctrls.priorityMaxLatency      0.000000000000                       # per QoS priority maximum request to response latency (Second)
system.mem_ctrls.numReadWriteTurnArounds            0                       # Number of turnarounds from READ to WRITE (Count)
system.mem_ctrls.numWriteReadTurnArounds            0                       # Number of turnarounds from WRITE to READ (Count)
system.mem_ctrls.numStayReadState                   0                       # Number of times bus staying in READ state (Count)
system.mem_ctrls.numStayWriteState                  0                       # Number of times bus staying in WRITE state (Count)
system.mem_ctrls.readReqs                           0                       # Number of read requests accepted (Count)
system.mem_ctrls.writeReqs                          0                       # Number of write requests accepted (Count)
system.mem_ctrls.readBursts                         0                       # Number of controller read bursts, including those serviced by the write queue (Count)
system.mem_ctrls.writeBursts                        0                       # Number of controller write bursts, including those merged in the write queue (Count)
system.mem_ctrls.servicedByWrQ                      0                       # Number of controller read bursts serviced by the write queue (Count)
system.mem_ctrls.mergedWrBursts                     0                       # Number of controller write bursts merged with an existing one (Count)
system.mem_ctrls.neitherReadNorWriteReqs            0                       # Number of requests that are neither read nor write (Count)
system.mem_ctrls.avgRdQLen                       0.00                       # Average read queue length when enqueuing ((Count/Tick))
system.mem_ctrls.avgWrQLen                       0.00                       # Average write queue length when enqueuing ((Count/Tick))
system.mem_ctrls.numRdRetry                         0                       # Number of times read queue was full causing retry (Count)
system.mem_ctrls.numWrRetry                         0                       # Number of times write queue was full causing retry (Count)
system.mem_ctrls.readPktSize::0                     0                       # Read request sizes (log2) (Count)
system.mem_ctrls.readPktSize::1                     0                       # Read request sizes (log2) (Count)
system.mem_ctrls.readPktSize::2                     0                       # Read request sizes (log2) (Count)
system.mem_ctrls.readPktSize::3                     0                       # Read request sizes (log2) (Count)
system.mem_ctrls.readPktSize::4                     0                       # Read request sizes (log2) (Count)
system.mem_ctrls.readPktSize::5                     0                       # Read request sizes (log2) (Count)
system.mem_ctrls.readPktSize::6                     0                       # Read request sizes (log2) (Count)
system.mem_ctrls.writePktSize::0                    0                       # Write request sizes (log2) (Count)
system.mem_ctrls.writePktSize::1                    0                       # Write request sizes (log2) (Count)
system.mem_ctrls.writePktSize::2                    0                       # Write request sizes (log2) (Count)
system.mem_ctrls.writePktSize::3                    0                       # Write request sizes (log2) (Count)
system.mem_ctrls.writePktSize::4                    0                       # Write request sizes (log2) (Count)
system.mem_ctrls.writePktSize::5                    0                       # Write request sizes (log2) (Count)
system.mem_ctrls.writePktSize::6                    0                       # Write request sizes (log2) (Count)
system.mem_ctrls.rdQLenPdf::0                       0                       # What read queue length does an incoming req see (Count)
system.mem_ctrls.rdQLenPdf::1                       0                       # What read queue length does an incoming req see (Count)
system.mem_ctrls.rdQLenPdf::2                       0                       # What read queue length does an incoming req see (Count)
system.mem_ctrls.rdQLenPdf::3                       0                       # What read queue length does an incoming req see (Count)
system.mem_ctrls.rdQLenPdf::4                       0                       # What read queue length does an incoming req see (Count)
system.mem_ctrls.rdQLenPdf::5                       0                       # What read queue length does an incoming req see (Count)
system.mem_ctrls.rdQLenPdf::6                       0                       # What read queue length does an incoming req see (Count)
system.mem_ctrls.rdQLenPdf::7                       0                       # What read queue length does an incoming req see (Count)
system.mem_ctrls.rdQLenPdf::8                       0                       # What read queue length does an incoming req see (Count)
system.mem_ctrls.rdQLenPdf::9                       0                       # What read queue length does an incoming req see (Count)
system.mem_ctrls.rdQLenPdf::10                      0                       # What read queue length does an incoming req see (Count)
system.mem_ctrls.rdQLenPdf::11                      0                       # What read queue length does an incoming req see (Count)
system.mem_ctrls.rdQLenPdf::12                      0                       # What read queue length does an incoming req see (Count)
system.mem_ctrls.rdQLenPdf::13                      0                       # What read queue length does an incoming req see (Count)
system.mem_ctrls.rdQLenPdf::14                      0                       # What read queue length does an incoming req see (Count)
system.mem_ctrls.rdQLenPdf::15                      0                       # What read queue length does an incoming req see (Count)
system.mem_ctrls.rdQLenPdf::16                      0                       # What read queue length does an incoming req see (Count)
system.mem_ctrls.rdQLenPdf::17                      0                       # What read queue length does an incoming req see (Count)
system.mem_ctrls.rdQLenPdf::18                      0                       # What read queue length does an incoming req see (Count)
system.mem_ctrls.rdQLenPdf::19                      0                       # What read queue length does an incoming req see (Count)
system.mem_ctrls.rdQLenPdf::20                      0                       # What read queue length does an incoming req see (Count)
system.mem_ctrls.rdQLenPdf::21                      0                       # What read queue length does an incoming req see (Count)
system.mem_ctrls.rdQLenPdf::22                      0                       # What read queue length does an incoming req see (Count)
system.mem_ctrls.rdQLenPdf::23                      0                       # What read queue length does an incoming req see (Count)
system.mem_ctrls.rdQLenPdf::24                      0                       # What read queue length does an incoming req see (Count)
system.mem_ctrls.rdQLenPdf::25                      0                       # What read queue length does an incoming req see (Count)
system.mem_ctrls.rdQLenPdf::26                      0                       # What read queue length does an incoming req see (Count)
system.mem_ctrls.rdQLenPdf::27                      0                       # What read queue length does an incoming req see (Count)
system.mem_ctrls.rdQLenPdf::28                      0                       # What read queue length does an incoming req see (Count)
system.mem_ctrls.rdQLenPdf::29                      0                       # What read queue length does an incoming req see (Count)
system.mem_ctrls.rdQLenPdf::30                      0                       # What read queue length does an incoming req see (Count)
system.mem_ctrls.rdQLenPdf::31                      0                       # What read queue length does an incoming req see (Count)
system.mem_ctrls.wrQLenPdf::0                       0                       # What write queue length does an incoming req see (Count)
system.mem_ctrls.wrQLenPdf::1                       0                       # What write queue length does an incoming req see (Count)
system.mem_ctrls.wrQLenPdf::2                       0                       # What write queue length does an incoming req see (Count)
system.mem_ctrls.wrQLenPdf::3                       0                       # What write queue length does an incoming req see (Count)
system.mem_ctrls.wrQLenPdf::4                       0                       # What write queue length does an incoming req see (Count)
system.mem_ctrls.wrQLenPdf::5                       0                       # What write queue length does an incoming req see (Count)
system.mem_ctrls.wrQLenPdf::6                       0                       # What write queue length does an incoming req see (Count)
system.mem_ctrls.wrQLenPdf::7                       0                       # What write queue length does an incoming req see (Count)
system.mem_ctrls.wrQLenPdf::8                       0                       # What write queue length does an incoming req see (Count)
system.mem_ctrls.wrQLenPdf::9                       0                       # What write queue length does an incoming req see (Count)
system.mem_ctrls.wrQLenPdf::10                      0                       # What write queue length does an incoming req see (Count)
system.mem_ctrls.wrQLenPdf::11                      0                       # What write queue length does an incoming req see (Count)
system.mem_ctrls.wrQLenPdf::12                      0                       # What write queue length does an incoming req see (Count)
system.mem_ctrls.wrQLenPdf::13                      0                       # What write queue length does an incoming req see (Count)
system.mem_ctrls.wrQLenPdf::14                      0                       # What write queue length does an incoming req see (Count)
system.mem_ctrls.wrQLenPdf::15                      0                       # What write queue length does an incoming req see (Count)
system.mem_ctrls.wrQLenPdf::16                      0                       # What write queue length does an incoming req see (Count)
system.mem_ctrls.wrQLenPdf::17                      0                       # What write queue length does an incoming req see (Count)
system.mem_ctrls.wrQLenPdf::18                      0                       # What write queue length does an incoming req see (Count)
system.mem_ctrls.wrQLenPdf::19                      0                       # What write queue length does an incoming req see (Count)
system.mem_ctrls.wrQLenPdf::20                      0                       # What write queue length does an incoming req see (Count)
system.mem_ctrls.wrQLenPdf::21                      0                       # What write queue length does an incoming req see (Count)
system.mem_ctrls.wrQLenPdf::22                      0                       # What write queue length does an incoming req see (Count)
system.mem_ctrls.wrQLenPdf::23                      0                       # What write queue length does an incoming req see (Count)
system.mem_ctrls.wrQLenPdf::24                      0                       # What write queue length does an incoming req see (Count)
system.mem_ctrls.wrQLenPdf::25                      0                       # What write queue length does an incoming req see (Count)
system.mem_ctrls.wrQLenPdf::26                      0                       # What write queue length does an incoming req see (Count)
system.mem_ctrls.wrQLenPdf::27                      0                       # What write queue length does an incoming req see (Count)
system.mem_ctrls.wrQLenPdf::28                      0                       # What write queue length does an incoming req see (Count)
system.mem_ctrls.wrQLenPdf::29                      0                       # What write queue length does an incoming req see (Count)
system.mem_ctrls.wrQLenPdf::30                      0                       # What write queue length does an incoming req see (Count)
system.mem_ctrls.wrQLenPdf::31                      0                       # What write queue length does an incoming req see (Count)
system.mem_ctrls.wrQLenPdf::32                      0                       # What write queue length does an incoming req see (Count)
system.mem_ctrls.wrQLenPdf::33                      0                       # What write queue length does an incoming req see (Count)
system.mem_ctrls.wrQLenPdf::34                      0                       # What write queue length does an incoming req see (Count)
system.mem_ctrls.wrQLenPdf::35                      0                       # What write queue length does an incoming req see (Count)
system.mem_ctrls.wrQLenPdf::36                      0                       # What write queue length does an incoming req see (Count)
system.mem_ctrls.wrQLenPdf::37                      0                       # What write queue length does an incoming req see (Count)
system.mem_ctrls.wrQLenPdf::38                      0                       # What write queue length does an incoming req see (Count)
system.mem_ctrls.wrQLenPdf::39                      0                       # What write queue length does an incoming req see (Count)
system.mem_ctrls.wrQLenPdf::40                      0                       # What write queue length does an incoming req see (Count)
system.mem_ctrls.wrQLenPdf::41                      0                       # What write queue length does an incoming req see (Count)
system.mem_ctrls.wrQLenPdf::42                      0                       # What write queue length does an incoming req see (Count)
system.mem_ctrls.wrQLenPdf::43                      0                       # What write queue length does an incoming req see (Count)
system.mem_ctrls.wrQLenPdf::44                      0                       # What write queue length does an incoming req see (Count)
system.mem_ctrls.wrQLenPdf::45                      0                       # What write queue length does an incoming req see (Count)
system.mem_ctrls.wrQLenPdf::46                      0                       # What write queue length does an incoming req see (Count)
system.mem_ctrls.wrQLenPdf::47                      0                       # What write queue length does an incoming req see (Count)
system.mem_ctrls.wrQLenPdf::48                      0                       # What write queue length does an incoming req see (Count)
system.mem_ctrls.wrQLenPdf::49                      0                       # What write queue length does an incoming req see (Count)
system.mem_ctrls.wrQLenPdf::50                      0                       # What write queue length does an incoming req see (Count)
system.mem_ctrls.wrQLenPdf::51                      0                       # What write queue length does an incoming req see (Count)
system.mem_ctrls.wrQLenPdf::52                      0                       # What write queue length does an incoming req see (Count)
system.mem_ctrls.wrQLenPdf::53                      0                       # What write queue length does an incoming req see (Count)
system.mem_ctrls.wrQLenPdf::54                      0                       # What write queue length does an incoming req see (Count)
system.mem_ctrls.wrQLenPdf::55                      0                       # What write queue length does an incoming req see (Count)
system.mem_ctrls.wrQLenPdf::56                      0                       # What write queue length does an incoming req see (Count)
system.mem_ctrls.wrQLenPdf::57                      0                       # What write queue length does an incoming req see (Count)
system.mem_ctrls.wrQLenPdf::58                      0                       # What write queue length does an incoming req see (Count)
system.mem_ctrls.wrQLenPdf::59                      0                       # What write queue length does an incoming req see (Count)
system.mem_ctrls.wrQLenPdf::60                      0                       # What write queue length does an incoming req see (Count)
system.mem_ctrls.wrQLenPdf::61                      0                       # What write queue length does an incoming req see (Count)
system.mem_ctrls.wrQLenPdf::62                      0                       # What write queue length does an incoming req see (Count)
system.mem_ctrls.wrQLenPdf::63                      0                       # What write queue length does an incoming req see (Count)
system.mem_ctrls.bytesReadWrQ                       0                       # Total number of bytes read from write queue (Byte)
system.mem_ctrls.bytesReadSys                       0                       # Total read bytes from the system interface side (Byte)
system.mem_ctrls.bytesWrittenSys                    0                       # Total written bytes from the system interface side (Byte)
system.mem_ctrls.avgRdBWSys                0.00000000                       # Average system read bandwidth in Byte/s ((Byte/Second))
system.mem_ctrls.avgWrBWSys                0.00000000                       # Average system write bandwidth in Byte/s ((Byte/Second))
system.mem_ctrls.totGap                             0                       # Total gap between requests (Tick)
system.mem_ctrls.avgGap                           nan                       # Average gap between requests ((Tick/Count))
system.mem_ctrls.dram.bytesRead::cpu.inst            8                       # Number of bytes read from this memory (Byte)
system.mem_ctrls.dram.bytesRead::cpu.data           16                       # Number of bytes read from this memory (Byte)
system.mem_ctrls.dram.bytesRead::switch_cpus.inst            8                       # Number of bytes read from this memory (Byte)
system.mem_ctrls.dram.bytesRead::switch_cpus.data      1763910                       # Number of bytes read from this memory (Byte)
system.mem_ctrls.dram.bytesRead::total        1763942                       # Number of bytes read from this memory (Byte)
system.mem_ctrls.dram.bytesInstRead::cpu.inst            8                       # Number of instructions bytes read from this memory (Byte)
system.mem_ctrls.dram.bytesInstRead::switch_cpus.inst            8                       # Number of instructions bytes read from this memory (Byte)
system.mem_ctrls.dram.bytesInstRead::total           16                       # Number of instructions bytes read from this memory (Byte)
system.mem_ctrls.dram.bytesWritten::cpu.data           16                       # Number of bytes written to this memory (Byte)
system.mem_ctrls.dram.bytesWritten::switch_cpus.data       610212                       # Number of bytes written to this memory (Byte)
system.mem_ctrls.dram.bytesWritten::total       610228                       # Number of bytes written to this memory (Byte)
system.mem_ctrls.dram.numReads::cpu.inst            1                       # Number of read requests responded to by this memory (Count)
system.mem_ctrls.dram.numReads::cpu.data            2                       # Number of read requests responded to by this memory (Count)
system.mem_ctrls.dram.numReads::switch_cpus.inst            1                       # Number of read requests responded to by this memory (Count)
system.mem_ctrls.dram.numReads::switch_cpus.data       240643                       # Number of read requests responded to by this memory (Count)
system.mem_ctrls.dram.numReads::total          240647                       # Number of read requests responded to by this memory (Count)
system.mem_ctrls.dram.numWrites::cpu.data            2                       # Number of write requests responded to by this memory (Count)
system.mem_ctrls.dram.numWrites::switch_cpus.data        81110                       # Number of write requests responded to by this memory (Count)
system.mem_ctrls.dram.numWrites::total          81112                       # Number of write requests responded to by this memory (Count)
system.mem_ctrls.dram.bwRead::cpu.inst           8455                       # Total read bandwidth from this memory ((Byte/Second))
system.mem_ctrls.dram.bwRead::cpu.data          16910                       # Total read bandwidth from this memory ((Byte/Second))
system.mem_ctrls.dram.bwRead::switch_cpus.inst         8455                       # Total read bandwidth from this memory ((Byte/Second))
system.mem_ctrls.dram.bwRead::switch_cpus.data   1864273145                       # Total read bandwidth from this memory ((Byte/Second))
system.mem_ctrls.dram.bwRead::total        1864306965                       # Total read bandwidth from this memory ((Byte/Second))
system.mem_ctrls.dram.bwInstRead::cpu.inst         8455                       # Instruction read bandwidth from this memory ((Byte/Second))
system.mem_ctrls.dram.bwInstRead::switch_cpus.inst         8455                       # Instruction read bandwidth from this memory ((Byte/Second))
system.mem_ctrls.dram.bwInstRead::total         16910                       # Instruction read bandwidth from this memory ((Byte/Second))
system.mem_ctrls.dram.bwWrite::cpu.data         16910                       # Write bandwidth from this memory ((Byte/Second))
system.mem_ctrls.dram.bwWrite::switch_cpus.data    644931909                       # Write bandwidth from this memory ((Byte/Second))
system.mem_ctrls.dram.bwWrite::total        644948820                       # Write bandwidth from this memory ((Byte/Second))
system.mem_ctrls.dram.bwTotal::cpu.inst          8455                       # Total bandwidth to/from this memory ((Byte/Second))
system.mem_ctrls.dram.bwTotal::cpu.data         33821                       # Total bandwidth to/from this memory ((Byte/Second))
system.mem_ctrls.dram.bwTotal::switch_cpus.inst         8455                       # Total bandwidth to/from this memory ((Byte/Second))
system.mem_ctrls.dram.bwTotal::switch_cpus.data   2509205054                       # Total bandwidth to/from this memory ((Byte/Second))
system.mem_ctrls.dram.bwTotal::total       2509255785                       # Total bandwidth to/from this memory ((Byte/Second))
system.mem_ctrls.dram.readBursts                    0                       # Number of DRAM read bursts (Count)
system.mem_ctrls.dram.writeBursts                   0                       # Number of DRAM write bursts (Count)
system.mem_ctrls.dram.perBankRdBursts::0            0                       # Per bank write bursts (Count)
system.mem_ctrls.dram.perBankRdBursts::1            0                       # Per bank write bursts (Count)
system.mem_ctrls.dram.perBankRdBursts::2            0                       # Per bank write bursts (Count)
system.mem_ctrls.dram.perBankRdBursts::3            0                       # Per bank write bursts (Count)
system.mem_ctrls.dram.perBankRdBursts::4            0                       # Per bank write bursts (Count)
system.mem_ctrls.dram.perBankRdBursts::5            0                       # Per bank write bursts (Count)
system.mem_ctrls.dram.perBankRdBursts::6            0                       # Per bank write bursts (Count)
system.mem_ctrls.dram.perBankRdBursts::7            0                       # Per bank write bursts (Count)
system.mem_ctrls.dram.perBankRdBursts::8            0                       # Per bank write bursts (Count)
system.mem_ctrls.dram.perBankRdBursts::9            0                       # Per bank write bursts (Count)
system.mem_ctrls.dram.perBankRdBursts::10            0                       # Per bank write bursts (Count)
system.mem_ctrls.dram.perBankRdBursts::11            0                       # Per bank write bursts (Count)
system.mem_ctrls.dram.perBankRdBursts::12            0                       # Per bank write bursts (Count)
system.mem_ctrls.dram.perBankRdBursts::13            0                       # Per bank write bursts (Count)
system.mem_ctrls.dram.perBankRdBursts::14            0                       # Per bank write bursts (Count)
system.mem_ctrls.dram.perBankRdBursts::15            0                       # Per bank write bursts (Count)
system.mem_ctrls.dram.perBankWrBursts::0            0                       # Per bank write bursts (Count)
system.mem_ctrls.dram.perBankWrBursts::1            0                       # Per bank write bursts (Count)
system.mem_ctrls.dram.perBankWrBursts::2            0                       # Per bank write bursts (Count)
system.mem_ctrls.dram.perBankWrBursts::3            0                       # Per bank write bursts (Count)
system.mem_ctrls.dram.perBankWrBursts::4            0                       # Per bank write bursts (Count)
system.mem_ctrls.dram.perBankWrBursts::5            0                       # Per bank write bursts (Count)
system.mem_ctrls.dram.perBankWrBursts::6            0                       # Per bank write bursts (Count)
system.mem_ctrls.dram.perBankWrBursts::7            0                       # Per bank write bursts (Count)
system.mem_ctrls.dram.perBankWrBursts::8            0                       # Per bank write bursts (Count)
system.mem_ctrls.dram.perBankWrBursts::9            0                       # Per bank write bursts (Count)
system.mem_ctrls.dram.perBankWrBursts::10            0                       # Per bank write bursts (Count)
system.mem_ctrls.dram.perBankWrBursts::11            0                       # Per bank write bursts (Count)
system.mem_ctrls.dram.perBankWrBursts::12            0                       # Per bank write bursts (Count)
system.mem_ctrls.dram.perBankWrBursts::13            0                       # Per bank write bursts (Count)
system.mem_ctrls.dram.perBankWrBursts::14            0                       # Per bank write bursts (Count)
system.mem_ctrls.dram.perBankWrBursts::15            0                       # Per bank write bursts (Count)
system.mem_ctrls.dram.totQLat                       0                       # Total ticks spent queuing (Tick)
system.mem_ctrls.dram.totBusLat                     0                       # Total ticks spent in databus transfers (Tick)
system.mem_ctrls.dram.totMemAccLat                  0                       # Total ticks spent from burst creation until serviced by the DRAM (Tick)
system.mem_ctrls.dram.avgQLat                     nan                       # Average queueing delay per DRAM burst ((Tick/Count))
system.mem_ctrls.dram.avgBusLat                   nan                       # Average bus latency per DRAM burst ((Tick/Count))
system.mem_ctrls.dram.avgMemAccLat                nan                       # Average memory access latency per DRAM burst ((Tick/Count))
system.mem_ctrls.dram.readRowHits                   0                       # Number of row buffer hits during reads (Count)
system.mem_ctrls.dram.writeRowHits                  0                       # Number of row buffer hits during writes (Count)
system.mem_ctrls.dram.readRowHitRate              nan                       # Row buffer hit rate for reads (Ratio)
system.mem_ctrls.dram.writeRowHitRate             nan                       # Row buffer hit rate for writes (Ratio)
system.mem_ctrls.dram.bytesRead                     0                       # Total bytes read (Byte)
system.mem_ctrls.dram.bytesWritten                  0                       # Total bytes written (Byte)
system.mem_ctrls.dram.avgRdBW                       0                       # Average DRAM read bandwidth in MiBytes/s ((Byte/Second))
system.mem_ctrls.dram.avgWrBW                       0                       # Average DRAM write bandwidth in MiBytes/s ((Byte/Second))
system.mem_ctrls.dram.peakBW                 12800.00                       # Theoretical peak bandwidth in MiByte/s ((Byte/Second))
system.mem_ctrls.dram.busUtil                    0.00                       # Data bus utilization in percentage (Ratio)
system.mem_ctrls.dram.busUtilRead                0.00                       # Data bus utilization in percentage for reads (Ratio)
system.mem_ctrls.dram.busUtilWrite               0.00                       # Data bus utilization in percentage for writes (Ratio)
system.mem_ctrls.dram.pageHitRate                 nan                       # Row buffer hit rate, read and write combined (Ratio)
system.mem_ctrls.dram.power_state.pwrStateResidencyTicks::UNDEFINED 19841620861000                       # Cumulative time (in ticks) in various power states (Tick)
system.mem_ctrls.dram.rank0.actEnergy               0                       # Energy for activate commands per rank (pJ) (Joule)
system.mem_ctrls.dram.rank0.preEnergy               0                       # Energy for precharge commands per rank (pJ) (Joule)
system.mem_ctrls.dram.rank0.readEnergy              0                       # Energy for read commands per rank (pJ) (Joule)
system.mem_ctrls.dram.rank0.writeEnergy             0                       # Energy for write commands per rank (pJ) (Joule)
system.mem_ctrls.dram.rank0.refreshEnergy            0                       # Energy for refresh commands per rank (pJ) (Joule)
system.mem_ctrls.dram.rank0.actBackEnergy            0                       # Energy for active background per rank (pJ) (Joule)
system.mem_ctrls.dram.rank0.preBackEnergy    363327360                       # Energy for precharge background per rank (pJ) (Joule)
system.mem_ctrls.dram.rank0.actPowerDownEnergy            0                       # Energy for active power-down per rank (pJ) (Joule)
system.mem_ctrls.dram.rank0.prePowerDownEnergy            0                       # Energy for precharge power-down per rank (pJ) (Joule)
system.mem_ctrls.dram.rank0.selfRefreshEnergy            0                       # Energy for self refresh per rank (pJ) (Joule)
system.mem_ctrls.dram.rank0.totalEnergy     363327360                       # Total energy per rank (pJ) (Joule)
system.mem_ctrls.dram.rank0.averagePower          384                       # Core power per rank (mW) (Watt)
system.mem_ctrls.dram.rank0.totalIdleTime            0                       # Total Idle time Per DRAM Rank (Tick)
system.mem_ctrls.dram.rank0.pwrStateTime::IDLE 19841620861000                       # Time in different power states (Tick)
system.mem_ctrls.dram.rank0.pwrStateTime::REF            0                       # Time in different power states (Tick)
system.mem_ctrls.dram.rank0.pwrStateTime::SREF            0                       # Time in different power states (Tick)
system.mem_ctrls.dram.rank0.pwrStateTime::PRE_PDN            0                       # Time in different power states (Tick)
system.mem_ctrls.dram.rank0.pwrStateTime::ACT            0                       # Time in different power states (Tick)
system.mem_ctrls.dram.rank0.pwrStateTime::ACT_PDN            0                       # Time in different power states (Tick)
system.mem_ctrls.dram.rank1.actEnergy               0                       # Energy for activate commands per rank (pJ) (Joule)
system.mem_ctrls.dram.rank1.preEnergy               0                       # Energy for precharge commands per rank (pJ) (Joule)
system.mem_ctrls.dram.rank1.readEnergy              0                       # Energy for read commands per rank (pJ) (Joule)
system.mem_ctrls.dram.rank1.writeEnergy             0                       # Energy for write commands per rank (pJ) (Joule)
system.mem_ctrls.dram.rank1.refreshEnergy            0                       # Energy for refresh commands per rank (pJ) (Joule)
system.mem_ctrls.dram.rank1.actBackEnergy            0                       # Energy for active background per rank (pJ) (Joule)
system.mem_ctrls.dram.rank1.preBackEnergy    363327360                       # Energy for precharge background per rank (pJ) (Joule)
system.mem_ctrls.dram.rank1.actPowerDownEnergy            0                       # Energy for active power-down per rank (pJ) (Joule)
system.mem_ctrls.dram.rank1.prePowerDownEnergy            0                       # Energy for precharge power-down per rank (pJ) (Joule)
system.mem_ctrls.dram.rank1.selfRefreshEnergy            0                       # Energy for self refresh per rank (pJ) (Joule)
system.mem_ctrls.dram.rank1.totalEnergy     363327360                       # Total energy per rank (pJ) (Joule)
system.mem_ctrls.dram.rank1.averagePower          384                       # Core power per rank (mW) (Watt)
system.mem_ctrls.dram.rank1.totalIdleTime            0                       # Total Idle time Per DRAM Rank (Tick)
system.mem_ctrls.dram.rank1.pwrStateTime::IDLE 19841620861000                       # Time in different power states (Tick)
system.mem_ctrls.dram.rank1.pwrStateTime::REF            0                       # Time in different power states (Tick)
system.mem_ctrls.dram.rank1.pwrStateTime::SREF            0                       # Time in different power states (Tick)
system.mem_ctrls.dram.rank1.pwrStateTime::PRE_PDN            0                       # Time in different power states (Tick)
system.mem_ctrls.dram.rank1.pwrStateTime::ACT            0                       # Time in different power states (Tick)
system.mem_ctrls.dram.rank1.pwrStateTime::ACT_PDN            0                       # Time in different power states (Tick)
system.mem_ctrls.power_state.pwrStateResidencyTicks::UNDEFINED 19841620861000                       # Cumulative time (in ticks) in various power states (Tick)
system.membus.transDist::ReadReq               240647                       # Transaction distribution (Count)
system.membus.transDist::ReadResp              240647                       # Transaction distribution (Count)
system.membus.transDist::WriteReq               81112                       # Transaction distribution (Count)
system.membus.transDist::WriteResp              81112                       # Transaction distribution (Count)
system.membus.pktCount_system.cpu.icache_port::system.mem_ctrls.port            4                       # Packet count per connected requestor and responder (Count)
system.membus.pktCount_system.cpu.icache_port::total            4                       # Packet count per connected requestor and responder (Count)
system.membus.pktCount_system.cpu.dcache_port::system.mem_ctrls.port       643514                       # Packet count per connected requestor and responder (Count)
system.membus.pktCount_system.cpu.dcache_port::total       643514                       # Packet count per connected requestor and responder (Count)
system.membus.pktCount::total                  643518                       # Packet count per connected requestor and responder (Count)
system.membus.pktSize_system.cpu.icache_port::system.mem_ctrls.port           16                       # Cumulative packet size per connected requestor and responder (Byte)
system.membus.pktSize_system.cpu.icache_port::total           16                       # Cumulative packet size per connected requestor and responder (Byte)
system.membus.pktSize_system.cpu.dcache_port::system.mem_ctrls.port      2374154                       # Cumulative packet size per connected requestor and responder (Byte)
system.membus.pktSize_system.cpu.dcache_port::total      2374154                       # Cumulative packet size per connected requestor and responder (Byte)
system.membus.pktSize::total                  2374170                       # Cumulative packet size per connected requestor and responder (Byte)
system.membus.snoops                                0                       # Total snoops (Count)
system.membus.snoopTraffic                          0                       # Total snoop traffic (Byte)
system.membus.snoopFanout::samples                  0                       # Request fanout histogram (Count)
system.membus.snoopFanout::mean                   nan                       # Request fanout histogram (Count)
system.membus.snoopFanout::stdev                  nan                       # Request fanout histogram (Count)
system.membus.snoopFanout::underflows               0                       # Request fanout histogram (Count)
system.membus.snoopFanout::0                        0                       # Request fanout histogram (Count)
system.membus.snoopFanout::1                        0                       # Request fanout histogram (Count)
system.membus.snoopFanout::overflows                0                       # Request fanout histogram (Count)
system.membus.snoopFanout::min_value                0                       # Request fanout histogram (Count)
system.membus.snoopFanout::max_value                0                       # Request fanout histogram (Count)
system.membus.snoopFanout::total                    0                       # Request fanout histogram (Count)
system.membus.power_state.pwrStateResidencyTicks::UNDEFINED 19841620861000                       # Cumulative time (in ticks) in various power states (Tick)
system.membus.snoop_filter.totRequests              0                       # Total number of requests made to the snoop filter. (Count)
system.membus.snoop_filter.hitSingleRequests            0                       # Number of requests hitting in the snoop filter with a single holder of the requested data. (Count)
system.membus.snoop_filter.hitMultiRequests            0                       # Number of requests hitting in the snoop filter with multiple (>1) holders of the requested data. (Count)
system.membus.snoop_filter.totSnoops                0                       # Total number of snoops made to the snoop filter. (Count)
system.membus.snoop_filter.hitSingleSnoops            0                       # Number of snoops hitting in the snoop filter with a single holder of the requested data. (Count)
system.membus.snoop_filter.hitMultiSnoops            0                       # Number of snoops hitting in the snoop filter with multiple (>1) holders of the requested data. (Count)
system.switch_cpus.numCycles                  1892307                       # Number of cpu cycles simulated (Cycle)
system.switch_cpus.cpi                       1.892307                       # CPI: cycles per instruction (core level) ((Cycle/Count))
system.switch_cpus.ipc                       0.528455                       # IPC: instructions per cycle (core level) ((Count/Cycle))
system.switch_cpus.numWorkItemsStarted              0                       # Number of work items this cpu started (Count)
system.switch_cpus.numWorkItemsCompleted            0                       # Number of work items this cpu completed (Count)
system.switch_cpus.commitStats0.numInsts      1000000                       # Number of instructions committed (thread level) (Count)
system.switch_cpus.commitStats0.numOps        1460656                       # Number of ops (including micro ops) committed (thread level) (Count)
system.switch_cpus.commitStats0.numInstsNotNOP            0                       # Number of instructions committed excluding NOPs or prefetches (Count)
system.switch_cpus.commitStats0.numOpsNotNOP            0                       # Number of Ops (including micro ops) Simulated (Count)
system.switch_cpus.commitStats0.cpi          1.892307                       # CPI: cycles per instruction (thread level) ((Cycle/Count))
system.switch_cpus.commitStats0.ipc          0.528455                       # IPC: instructions per cycle (thread level) ((Count/Cycle))
system.switch_cpus.commitStats0.numMemRefs            0                       # Number of memory references committed (Count)
system.switch_cpus.commitStats0.numFpInsts      1051508                       # Number of float instructions (Count)
system.switch_cpus.commitStats0.numIntInsts       680449                       # Number of integer instructions (Count)
system.switch_cpus.commitStats0.numLoadInsts       240643                       # Number of load instructions (Count)
system.switch_cpus.commitStats0.numStoreInsts        81110                       # Number of store instructions (Count)
system.switch_cpus.commitStats0.numVecInsts            0                       # Number of vector instructions (Count)
system.switch_cpus.commitStats0.committedInstType::No_OpClass           82      0.01%      0.01% # Class of committed instruction. (Count)
system.switch_cpus.commitStats0.committedInstType::IntAlu       554762     37.98%     37.99% # Class of committed instruction. (Count)
system.switch_cpus.commitStats0.committedInstType::IntMult           61      0.00%     37.99% # Class of committed instruction. (Count)
system.switch_cpus.commitStats0.committedInstType::IntDiv            0      0.00%     37.99% # Class of committed instruction. (Count)
system.switch_cpus.commitStats0.committedInstType::FloatAdd       128653      8.81%     46.80% # Class of committed instruction. (Count)
system.switch_cpus.commitStats0.committedInstType::FloatCmp            0      0.00%     46.80% # Class of committed instruction. (Count)
system.switch_cpus.commitStats0.committedInstType::FloatCvt            0      0.00%     46.80% # Class of committed instruction. (Count)
system.switch_cpus.commitStats0.committedInstType::FloatMult            0      0.00%     46.80% # Class of committed instruction. (Count)
system.switch_cpus.commitStats0.committedInstType::FloatMultAcc            0      0.00%     46.80% # Class of committed instruction. (Count)
system.switch_cpus.commitStats0.committedInstType::FloatDiv            0      0.00%     46.80% # Class of committed instruction. (Count)
system.switch_cpus.commitStats0.committedInstType::FloatMisc            0      0.00%     46.80% # Class of committed instruction. (Count)
system.switch_cpus.commitStats0.committedInstType::FloatSqrt            0      0.00%     46.80% # Class of committed instruction. (Count)
system.switch_cpus.commitStats0.committedInstType::SimdAdd            0      0.00%     46.80% # Class of committed instruction. (Count)
system.switch_cpus.commitStats0.committedInstType::SimdAddAcc            0      0.00%     46.80% # Class of committed instruction. (Count)
system.switch_cpus.commitStats0.committedInstType::SimdAlu        17156      1.17%     47.97% # Class of committed instruction. (Count)
system.switch_cpus.commitStats0.committedInstType::SimdCmp            0      0.00%     47.97% # Class of committed instruction. (Count)
system.switch_cpus.commitStats0.committedInstType::SimdCvt            0      0.00%     47.97% # Class of committed instruction. (Count)
system.switch_cpus.commitStats0.committedInstType::SimdMisc         8541      0.58%     48.56% # Class of committed instruction. (Count)
system.switch_cpus.commitStats0.committedInstType::SimdMult            0      0.00%     48.56% # Class of committed instruction. (Count)
system.switch_cpus.commitStats0.committedInstType::SimdMultAcc            0      0.00%     48.56% # Class of committed instruction. (Count)
system.switch_cpus.commitStats0.committedInstType::SimdMatMultAcc            0      0.00%     48.56% # Class of committed instruction. (Count)
system.switch_cpus.commitStats0.committedInstType::SimdShift            0      0.00%     48.56% # Class of committed instruction. (Count)
system.switch_cpus.commitStats0.committedInstType::SimdShiftAcc            0      0.00%     48.56% # Class of committed instruction. (Count)
system.switch_cpus.commitStats0.committedInstType::SimdDiv            0      0.00%     48.56% # Class of committed instruction. (Count)
system.switch_cpus.commitStats0.committedInstType::SimdSqrt            0      0.00%     48.56% # Class of committed instruction. (Count)
system.switch_cpus.commitStats0.committedInstType::SimdFloatAdd       213327     14.60%     63.16% # Class of committed instruction. (Count)
system.switch_cpus.commitStats0.committedInstType::SimdFloatAlu            0      0.00%     63.16% # Class of committed instruction. (Count)
system.switch_cpus.commitStats0.committedInstType::SimdFloatCmp            0      0.00%     63.16% # Class of committed instruction. (Count)
system.switch_cpus.commitStats0.committedInstType::SimdFloatCvt        22728      1.56%     64.72% # Class of committed instruction. (Count)
system.switch_cpus.commitStats0.committedInstType::SimdFloatDiv            0      0.00%     64.72% # Class of committed instruction. (Count)
system.switch_cpus.commitStats0.committedInstType::SimdFloatMisc            0      0.00%     64.72% # Class of committed instruction. (Count)
system.switch_cpus.commitStats0.committedInstType::SimdFloatMult       193593     13.25%     77.97% # Class of committed instruction. (Count)
system.switch_cpus.commitStats0.committedInstType::SimdFloatMultAcc            0      0.00%     77.97% # Class of committed instruction. (Count)
system.switch_cpus.commitStats0.committedInstType::SimdFloatMatMultAcc            0      0.00%     77.97% # Class of committed instruction. (Count)
system.switch_cpus.commitStats0.committedInstType::SimdFloatSqrt            0      0.00%     77.97% # Class of committed instruction. (Count)
system.switch_cpus.commitStats0.committedInstType::SimdReduceAdd            0      0.00%     77.97% # Class of committed instruction. (Count)
system.switch_cpus.commitStats0.committedInstType::SimdReduceAlu            0      0.00%     77.97% # Class of committed instruction. (Count)
system.switch_cpus.commitStats0.committedInstType::SimdReduceCmp            0      0.00%     77.97% # Class of committed instruction. (Count)
system.switch_cpus.commitStats0.committedInstType::SimdFloatReduceAdd            0      0.00%     77.97% # Class of committed instruction. (Count)
system.switch_cpus.commitStats0.committedInstType::SimdFloatReduceCmp            0      0.00%     77.97% # Class of committed instruction. (Count)
system.switch_cpus.commitStats0.committedInstType::SimdAes            0      0.00%     77.97% # Class of committed instruction. (Count)
system.switch_cpus.commitStats0.committedInstType::SimdAesMix            0      0.00%     77.97% # Class of committed instruction. (Count)
system.switch_cpus.commitStats0.committedInstType::SimdSha1Hash            0      0.00%     77.97% # Class of committed instruction. (Count)
system.switch_cpus.commitStats0.committedInstType::SimdSha1Hash2            0      0.00%     77.97% # Class of committed instruction. (Count)
system.switch_cpus.commitStats0.committedInstType::SimdSha256Hash            0      0.00%     77.97% # Class of committed instruction. (Count)
system.switch_cpus.commitStats0.committedInstType::SimdSha256Hash2            0      0.00%     77.97% # Class of committed instruction. (Count)
system.switch_cpus.commitStats0.committedInstType::SimdShaSigma2            0      0.00%     77.97% # Class of committed instruction. (Count)
system.switch_cpus.commitStats0.committedInstType::SimdShaSigma3            0      0.00%     77.97% # Class of committed instruction. (Count)
system.switch_cpus.commitStats0.committedInstType::SimdPredAlu            0      0.00%     77.97% # Class of committed instruction. (Count)
system.switch_cpus.commitStats0.committedInstType::Matrix            0      0.00%     77.97% # Class of committed instruction. (Count)
system.switch_cpus.commitStats0.committedInstType::MatrixMov            0      0.00%     77.97% # Class of committed instruction. (Count)
system.switch_cpus.commitStats0.committedInstType::MatrixOP            0      0.00%     77.97% # Class of committed instruction. (Count)
system.switch_cpus.commitStats0.committedInstType::MemRead        49207      3.37%     81.34% # Class of committed instruction. (Count)
system.switch_cpus.commitStats0.committedInstType::MemWrite         9704      0.66%     82.01% # Class of committed instruction. (Count)
system.switch_cpus.commitStats0.committedInstType::FloatMemRead       191436     13.11%     95.11% # Class of committed instruction. (Count)
system.switch_cpus.commitStats0.committedInstType::FloatMemWrite        71406      4.89%    100.00% # Class of committed instruction. (Count)
system.switch_cpus.commitStats0.committedInstType::IprAccess            0      0.00%    100.00% # Class of committed instruction. (Count)
system.switch_cpus.commitStats0.committedInstType::InstPrefetch            0      0.00%    100.00% # Class of committed instruction. (Count)
system.switch_cpus.commitStats0.committedInstType::VectorUnitStrideLoad            0      0.00%    100.00% # Class of committed instruction. (Count)
system.switch_cpus.commitStats0.committedInstType::VectorUnitStrideStore            0      0.00%    100.00% # Class of committed instruction. (Count)
system.switch_cpus.commitStats0.committedInstType::VectorUnitStrideMaskLoad            0      0.00%    100.00% # Class of committed instruction. (Count)
system.switch_cpus.commitStats0.committedInstType::VectorUnitStrideMaskStore            0      0.00%    100.00% # Class of committed instruction. (Count)
system.switch_cpus.commitStats0.committedInstType::VectorStridedLoad            0      0.00%    100.00% # Class of committed instruction. (Count)
system.switch_cpus.commitStats0.committedInstType::VectorStridedStore            0      0.00%    100.00% # Class of committed instruction. (Count)
system.switch_cpus.commitStats0.committedInstType::VectorIndexedLoad            0      0.00%    100.00% # Class of committed instruction. (Count)
system.switch_cpus.commitStats0.committedInstType::VectorIndexedStore            0      0.00%    100.00% # Class of committed instruction. (Count)
system.switch_cpus.commitStats0.committedInstType::VectorUnitStrideFaultOnlyFirstLoad            0      0.00%    100.00% # Class of committed instruction. (Count)
system.switch_cpus.commitStats0.committedInstType::VectorWholeRegisterLoad            0      0.00%    100.00% # Class of committed instruction. (Count)
system.switch_cpus.commitStats0.committedInstType::VectorWholeRegisterStore            0      0.00%    100.00% # Class of committed instruction. (Count)
system.switch_cpus.commitStats0.committedInstType::VectorIntegerArith            0      0.00%    100.00% # Class of committed instruction. (Count)
system.switch_cpus.commitStats0.committedInstType::VectorFloatArith            0      0.00%    100.00% # Class of committed instruction. (Count)
system.switch_cpus.commitStats0.committedInstType::VectorFloatConvert            0      0.00%    100.00% # Class of committed instruction. (Count)
system.switch_cpus.commitStats0.committedInstType::VectorIntegerReduce            0      0.00%    100.00% # Class of committed instruction. (Count)
system.switch_cpus.commitStats0.committedInstType::VectorFloatReduce            0      0.00%    100.00% # Class of committed instruction. (Count)
system.switch_cpus.commitStats0.committedInstType::VectorMisc            0      0.00%    100.00% # Class of committed instruction. (Count)
system.switch_cpus.commitStats0.committedInstType::VectorIntegerExtension            0      0.00%    100.00% # Class of committed instruction. (Count)
system.switch_cpus.commitStats0.committedInstType::VectorConfig            0      0.00%    100.00% # Class of committed instruction. (Count)
system.switch_cpus.commitStats0.committedInstType::total      1460656                       # Class of committed instruction. (Count)
system.switch_cpus.commitStats0.committedControl::IsControl        38672                       # Class of control type instructions committed (Count)
system.switch_cpus.commitStats0.committedControl::IsDirectControl        38672                       # Class of control type instructions committed (Count)
system.switch_cpus.commitStats0.committedControl::IsCondControl        35775                       # Class of control type instructions committed (Count)
system.switch_cpus.commitStats0.committedControl::IsUncondControl         2897                       # Class of control type instructions committed (Count)
system.switch_cpus.exec_context.thread_0.numMatAluAccesses            0                       # Number of matrix alu accesses (Count)
system.switch_cpus.exec_context.thread_0.numCallsReturns            0                       # Number of times a function call or return occured (Count)
system.switch_cpus.exec_context.thread_0.numMatInsts            0                       # Number of matrix instructions (Count)
system.switch_cpus.exec_context.thread_0.numIdleCycles    22.999720                       # Number of idle cycles (Cycle)
system.switch_cpus.exec_context.thread_0.numBusyCycles 1892284.000280                       # Number of busy cycles (Cycle)
system.switch_cpus.exec_context.thread_0.notIdleFraction     0.999988                       # Percentage of non-idle cycles (Ratio)
system.switch_cpus.exec_context.thread_0.idleFraction     0.000012                       # Percentage of idle cycles (Ratio)
system.switch_cpus.executeStats0.numInsts            0                       # Number of executed instructions (Count)
system.switch_cpus.executeStats0.numNop             0                       # Number of nop insts executed (Count)
system.switch_cpus.executeStats0.numBranches            0                       # Number of branches executed (Count)
system.switch_cpus.executeStats0.numLoadInsts            0                       # Number of load instructions executed (Count)
system.switch_cpus.executeStats0.numStoreInsts       321753                       # Number of stores executed (Count)
system.switch_cpus.executeStats0.instRate            0                       # Inst execution rate ((Count/Cycle))
system.switch_cpus.executeStats0.numFpAluAccesses      1051508                       # Number of float alu accesses (Count)
system.switch_cpus.executeStats0.numFpRegReads      1789811                       # Number of times the floating registers were read (Count)
system.switch_cpus.executeStats0.numFpRegWrites       960258                       # Number of times the floating registers were written (Count)
system.switch_cpus.executeStats0.numIntAluAccesses       680449                       # Number of integer alu accesses (Count)
system.switch_cpus.executeStats0.numIntRegReads       854556                       # Number of times the integer registers were read (Count)
system.switch_cpus.executeStats0.numIntRegWrites       344759                       # Number of times the integer registers were written (Count)
system.switch_cpus.executeStats0.numMemRefs       321753                       # Number of memory refs (Count)
system.switch_cpus.executeStats0.numMiscRegReads       407716                       # Number of times the Misc registers were read (Count)
system.switch_cpus.executeStats0.numVecAluAccesses            0                       # Number of vector alu accesses (Count)
system.switch_cpus.executeStats0.numDiscardedOps            0                       # Number of ops (including micro ops) which were discarded before commit (Count)
system.switch_cpus.fetchStats0.numInsts       1000000                       # Number of instructions fetched (thread level) (Count)
system.switch_cpus.fetchStats0.numOps         1460656                       # Number of ops (including micro ops) fetched (thread level) (Count)
system.switch_cpus.fetchStats0.fetchRate     0.528455                       # Number of inst fetches per cycle ((Count/Cycle))
system.switch_cpus.fetchStats0.numBranches        38672                       # Number of branches fetched (Count)
system.switch_cpus.fetchStats0.branchRate     0.020436                       # Number of branch fetches per cycle (Ratio)
system.switch_cpus.fetchStats0.numFetchSuspends            0                       # Number of times Execute suspended instruction fetching (Count)
system.switch_cpus.mmu.dtb.rdAccesses          240643                       # TLB accesses on read requests (Count)
system.switch_cpus.mmu.dtb.wrAccesses           81110                       # TLB accesses on write requests (Count)
system.switch_cpus.mmu.dtb.rdMisses                56                       # TLB misses on read requests (Count)
system.switch_cpus.mmu.dtb.wrMisses                 2                       # TLB misses on write requests (Count)
system.switch_cpus.mmu.dtb.walker.power_state.pwrStateResidencyTicks::UNDEFINED 19841620861000                       # Cumulative time (in ticks) in various power states (Tick)
system.switch_cpus.mmu.itb.rdAccesses               0                       # TLB accesses on read requests (Count)
system.switch_cpus.mmu.itb.wrAccesses         1431651                       # TLB accesses on write requests (Count)
system.switch_cpus.mmu.itb.rdMisses                 0                       # TLB misses on read requests (Count)
system.switch_cpus.mmu.itb.wrMisses                 2                       # TLB misses on write requests (Count)
system.switch_cpus.mmu.itb.walker.power_state.pwrStateResidencyTicks::UNDEFINED 19841620861000                       # Cumulative time (in ticks) in various power states (Tick)
system.switch_cpus.power_state.pwrStateResidencyTicks::OFF    946165000                       # Cumulative time (in ticks) in various power states (Tick)
system.switch_cpus.thread_0.numInsts                0                       # Number of Instructions committed (Count)
system.switch_cpus.thread_0.numOps                  0                       # Number of Ops committed (Count)
system.switch_cpus.thread_0.numMemRefs              0                       # Number of Memory References (Count)
system.voltage_domain.voltage                       1                       # Voltage in Volts (Volt)
system.workload.inst.arm                            0                       # number of arm instructions executed (Count)
system.workload.inst.quiesce                        0                       # number of quiesce instructions executed (Count)

---------- End Simulation Statistics   ----------

---------- Begin Simulation Statistics ----------
simSeconds                                   0.009476                       # Number of seconds simulated (Second)
simTicks                                   9475512000                       # Number of ticks simulated (Tick)
finalTick                                19851096373000                       # Number of ticks from beginning of simulation (restored from checkpoints and never reset) (Tick)
simFreq                                  1000000000000                       # The number of ticks per simulated second ((Tick/Second))
hostSeconds                                      6.73                       # Real time elapsed on the host (Second)
hostTickRate                               1406913021                       # The number of ticks simulated per host second (ticks/s) ((Tick/Second))
hostMemory                                     642144                       # Number of bytes of host memory used (Byte)
simInsts                                     11000013                       # Number of instructions simulated (Count)
simOps                                       16003676                       # Number of ops (including micro ops) simulated (Count)
hostInstRate                                  1633233                       # Simulator instruction rate (inst/s) ((Count/Second))
hostOpRate                                    2376150                       # Simulator op (including micro ops) rate (op/s) ((Count/Second))
system.clk_domain.clock                          1000                       # Clock period in ticks (Tick)
system.cpu.numCycles                                0                       # Number of cpu cycles simulated (Cycle)
system.cpu.cpi                                    nan                       # CPI: cycles per instruction (core level) ((Cycle/Count))
[...]
system.switch_cpus.numCycles                 18951024                       # Number of cpu cycles simulated (Cycle)
system.switch_cpus.cpi                       1.895102                       # CPI: cycles per instruction (core level) ((Cycle/Count))
system.switch_cpus.ipc                       0.527676                       # IPC: instructions per cycle (core level) ((Count/Cycle))
system.switch_cpus.numWorkItemsStarted              0                       # Number of work items this cpu started (Count)
system.switch_cpus.numWorkItemsCompleted            0                       # Number of work items this cpu completed (Count)
system.switch_cpus.commitStats0.numInsts     10000001                       # Number of instructions committed (thread level) (Count)
system.switch_cpus.commitStats0.numOps       14543004                       # Number of ops (including micro ops) committed (thread level) (Count)
system.switch_cpus.commitStats0.numInstsNotNOP            0                       # Number of instructions committed excluding NOPs or prefetches (Count)
system.switch_cpus.commitStats0.numOpsNotNOP            0                       # Number of Ops (including micro ops) Simulated (Count)
system.switch_cpus.commitStats0.cpi          1.895102                       # CPI: cycles per instruction (thread level) ((Cycle/Count))
system.switch_cpus.commitStats0.ipc          0.527676                       # IPC: instructions per cycle (thread level) ((Count/Cycle))
system.switch_cpus.commitStats0.numMemRefs            0                       # Number of memory references committed (Count)
system.switch_cpus.commitStats0.numFpInsts     10770433                       # Number of float instructions (Count)
system.switch_cpus.commitStats0.numIntInsts      6604599                       # Number of integer instructions (Count)
system.switch_cpus.commitStats0.numLoadInsts      2452853                       # Number of load instructions (Count)
system.switch_cpus.commitStats0.numStoreInsts       830972                       # Number of store instructions (Count)
system.switch_cpus.commitStats0.numVecInsts            0                       # Number of vector instructions (Count)
system.switch_cpus.commitStats0.committedInstType::No_OpClass          763      0.01%      0.01% # Class of committed instruction. (Count)
system.switch_cpus.commitStats0.committedInstType::IntAlu      5261816     36.18%     36.19% # Class of committed instruction. (Count)
system.switch_cpus.commitStats0.committedInstType::IntMult          618      0.00%     36.19% # Class of committed instruction. (Count)
system.switch_cpus.commitStats0.committedInstType::IntDiv            0      0.00%     36.19% # Class of committed instruction. (Count)
system.switch_cpus.commitStats0.committedInstType::FloatAdd      1314200      9.04%     45.23% # Class of committed instruction. (Count)
system.switch_cpus.commitStats0.committedInstType::FloatCmp            0      0.00%     45.23% # Class of committed instruction. (Count)
system.switch_cpus.commitStats0.committedInstType::FloatCvt            0      0.00%     45.23% # Class of committed instruction. (Count)
system.switch_cpus.commitStats0.committedInstType::FloatMult            0      0.00%     45.23% # Class of committed instruction. (Count)
system.switch_cpus.commitStats0.committedInstType::FloatMultAcc            0      0.00%     45.23% # Class of committed instruction. (Count)
system.switch_cpus.commitStats0.committedInstType::FloatDiv            0      0.00%     45.23% # Class of committed instruction. (Count)
system.switch_cpus.commitStats0.committedInstType::FloatMisc            0      0.00%     45.23% # Class of committed instruction. (Count)
system.switch_cpus.commitStats0.committedInstType::FloatSqrt            0      0.00%     45.23% # Class of committed instruction. (Count)
system.switch_cpus.commitStats0.committedInstType::SimdAdd            0      0.00%     45.23% # Class of committed instruction. (Count)
system.switch_cpus.commitStats0.committedInstType::SimdAddAcc            0      0.00%     45.23% # Class of committed instruction. (Count)
system.switch_cpus.commitStats0.committedInstType::SimdAlu       182584      1.26%     46.48% # Class of committed instruction. (Count)
system.switch_cpus.commitStats0.committedInstType::SimdCmp            0      0.00%     46.48% # Class of committed instruction. (Count)
system.switch_cpus.commitStats0.committedInstType::SimdCvt            0      0.00%     46.48% # Class of committed instruction. (Count)
system.switch_cpus.commitStats0.committedInstType::SimdMisc        90858      0.62%     47.11% # Class of committed instruction. (Count)
system.switch_cpus.commitStats0.committedInstType::SimdMult            0      0.00%     47.11% # Class of committed instruction. (Count)
system.switch_cpus.commitStats0.committedInstType::SimdMultAcc            0      0.00%     47.11% # Class of committed instruction. (Count)
system.switch_cpus.commitStats0.committedInstType::SimdMatMultAcc            0      0.00%     47.11% # Class of committed instruction. (Count)
system.switch_cpus.commitStats0.committedInstType::SimdShift            0      0.00%     47.11% # Class of committed instruction. (Count)
system.switch_cpus.commitStats0.committedInstType::SimdShiftAcc            0      0.00%     47.11% # Class of committed instruction. (Count)
system.switch_cpus.commitStats0.committedInstType::SimdDiv            0      0.00%     47.11% # Class of committed instruction. (Count)
system.switch_cpus.commitStats0.committedInstType::SimdSqrt            0      0.00%     47.11% # Class of committed instruction. (Count)
system.switch_cpus.commitStats0.committedInstType::SimdFloatAdd      2178914     14.98%     62.09% # Class of committed instruction. (Count)
system.switch_cpus.commitStats0.committedInstType::SimdFloatAlu            0      0.00%     62.09% # Class of committed instruction. (Count)
system.switch_cpus.commitStats0.committedInstType::SimdFloatCmp            0      0.00%     62.09% # Class of committed instruction. (Count)
system.switch_cpus.commitStats0.committedInstType::SimdFloatCvt       224190      1.54%     63.63% # Class of committed instruction. (Count)
system.switch_cpus.commitStats0.committedInstType::SimdFloatDiv            0      0.00%     63.63% # Class of committed instruction. (Count)
system.switch_cpus.commitStats0.committedInstType::SimdFloatMisc            0      0.00%     63.63% # Class of committed instruction. (Count)
system.switch_cpus.commitStats0.committedInstType::SimdFloatMult      2005236     13.79%     77.42% # Class of committed instruction. (Count)
system.switch_cpus.commitStats0.committedInstType::SimdFloatMultAcc            0      0.00%     77.42% # Class of committed instruction. (Count)
system.switch_cpus.commitStats0.committedInstType::SimdFloatMatMultAcc            0      0.00%     77.42% # Class of committed instruction. (Count)
system.switch_cpus.commitStats0.committedInstType::SimdFloatSqrt            0      0.00%     77.42% # Class of committed instruction. (Count)
system.switch_cpus.commitStats0.committedInstType::SimdReduceAdd            0      0.00%     77.42% # Class of committed instruction. (Count)
system.switch_cpus.commitStats0.committedInstType::SimdReduceAlu            0      0.00%     77.42% # Class of committed instruction. (Count)
system.switch_cpus.commitStats0.committedInstType::SimdReduceCmp            0      0.00%     77.42% # Class of committed instruction. (Count)
system.switch_cpus.commitStats0.committedInstType::SimdFloatReduceAdd            0      0.00%     77.42% # Class of committed instruction. (Count)
system.switch_cpus.commitStats0.committedInstType::SimdFloatReduceCmp            0      0.00%     77.42% # Class of committed instruction. (Count)
system.switch_cpus.commitStats0.committedInstType::SimdAes            0      0.00%     77.42% # Class of committed instruction. (Count)
system.switch_cpus.commitStats0.committedInstType::SimdAesMix            0      0.00%     77.42% # Class of committed instruction. (Count)
system.switch_cpus.commitStats0.committedInstType::SimdSha1Hash            0      0.00%     77.42% # Class of committed instruction. (Count)
system.switch_cpus.commitStats0.committedInstType::SimdSha1Hash2            0      0.00%     77.42% # Class of committed instruction. (Count)
system.switch_cpus.commitStats0.committedInstType::SimdSha256Hash            0      0.00%     77.42% # Class of committed instruction. (Count)
system.switch_cpus.commitStats0.committedInstType::SimdSha256Hash2            0      0.00%     77.42% # Class of committed instruction. (Count)
system.switch_cpus.commitStats0.committedInstType::SimdShaSigma2            0      0.00%     77.42% # Class of committed instruction. (Count)
system.switch_cpus.commitStats0.committedInstType::SimdShaSigma3            0      0.00%     77.42% # Class of committed instruction. (Count)
system.switch_cpus.commitStats0.committedInstType::SimdPredAlu            0      0.00%     77.42% # Class of committed instruction. (Count)
system.switch_cpus.commitStats0.committedInstType::Matrix            0      0.00%     77.42% # Class of committed instruction. (Count)
system.switch_cpus.commitStats0.committedInstType::MatrixMov            0      0.00%     77.42% # Class of committed instruction. (Count)
system.switch_cpus.commitStats0.committedInstType::MatrixOP            0      0.00%     77.42% # Class of committed instruction. (Count)
system.switch_cpus.commitStats0.committedInstType::MemRead       470615      3.24%     80.66% # Class of committed instruction. (Count)
system.switch_cpus.commitStats0.committedInstType::MemWrite        71277      0.49%     81.15% # Class of committed instruction. (Count)
system.switch_cpus.commitStats0.committedInstType::FloatMemRead      1982238     13.63%     94.78% # Class of committed instruction. (Count)
system.switch_cpus.commitStats0.committedInstType::FloatMemWrite       759695      5.22%    100.00% # Class of committed instruction. (Count)
system.switch_cpus.commitStats0.committedInstType::IprAccess            0      0.00%    100.00% # Class of committed instruction. (Count)
system.switch_cpus.commitStats0.committedInstType::InstPrefetch            0      0.00%    100.00% # Class of committed instruction. (Count)
system.switch_cpus.commitStats0.committedInstType::VectorUnitStrideLoad            0      0.00%    100.00% # Class of committed instruction. (Count)
system.switch_cpus.commitStats0.committedInstType::VectorUnitStrideStore            0      0.00%    100.00% # Class of committed instruction. (Count)
system.switch_cpus.commitStats0.committedInstType::VectorUnitStrideMaskLoad            0      0.00%    100.00% # Class of committed instruction. (Count)
system.switch_cpus.commitStats0.committedInstType::VectorUnitStrideMaskStore            0      0.00%    100.00% # Class of committed instruction. (Count)
system.switch_cpus.commitStats0.committedInstType::VectorStridedLoad            0      0.00%    100.00% # Class of committed instruction. (Count)
system.switch_cpus.commitStats0.committedInstType::VectorStridedStore            0      0.00%    100.00% # Class of committed instruction. (Count)
system.switch_cpus.commitStats0.committedInstType::VectorIndexedLoad            0      0.00%    100.00% # Class of committed instruction. (Count)
system.switch_cpus.commitStats0.committedInstType::VectorIndexedStore            0      0.00%    100.00% # Class of committed instruction. (Count)
system.switch_cpus.commitStats0.committedInstType::VectorUnitStrideFaultOnlyFirstLoad            0      0.00%    100.00% # Class of committed instruction. (Count)
system.switch_cpus.commitStats0.committedInstType::VectorWholeRegisterLoad            0      0.00%    100.00% # Class of committed instruction. (Count)
system.switch_cpus.commitStats0.committedInstType::VectorWholeRegisterStore            0      0.00%    100.00% # Class of committed instruction. (Count)
system.switch_cpus.commitStats0.committedInstType::VectorIntegerArith            0      0.00%    100.00% # Class of committed instruction. (Count)
system.switch_cpus.commitStats0.committedInstType::VectorFloatArith            0      0.00%    100.00% # Class of committed instruction. (Count)
system.switch_cpus.commitStats0.committedInstType::VectorFloatConvert            0      0.00%    100.00% # Class of committed instruction. (Count)
system.switch_cpus.commitStats0.committedInstType::VectorIntegerReduce            0      0.00%    100.00% # Class of committed instruction. (Count)
system.switch_cpus.commitStats0.committedInstType::VectorFloatReduce            0      0.00%    100.00% # Class of committed instruction. (Count)
system.switch_cpus.commitStats0.committedInstType::VectorMisc            0      0.00%    100.00% # Class of committed instruction. (Count)
system.switch_cpus.commitStats0.committedInstType::VectorIntegerExtension            0      0.00%    100.00% # Class of committed instruction. (Count)
system.switch_cpus.commitStats0.committedInstType::VectorConfig            0      0.00%    100.00% # Class of committed instruction. (Count)
system.switch_cpus.commitStats0.committedInstType::total     14543004                       # Class of committed instruction. (Count)
system.switch_cpus.commitStats0.committedControl::IsControl       347435                       # Class of control type instructions committed (Count)
system.switch_cpus.commitStats0.committedControl::IsDirectControl       347435                       # Class of control type instructions committed (Count)
system.switch_cpus.commitStats0.committedControl::IsCondControl       316252                       # Class of control type instructions committed (Count)
system.switch_cpus.commitStats0.committedControl::IsUncondControl        31183                       # Class of control type instructions committed (Count)
system.switch_cpus.exec_context.thread_0.numMatAluAccesses            0                       # Number of matrix alu accesses (Count)
system.switch_cpus.exec_context.thread_0.numCallsReturns            0                       # Number of times a function call or return occured (Count)
system.switch_cpus.exec_context.thread_0.numMatInsts            0                       # Number of matrix instructions (Count)
system.switch_cpus.exec_context.thread_0.numIdleCycles            0                       # Number of idle cycles (Cycle)
system.switch_cpus.exec_context.thread_0.numBusyCycles     18951024                       # Number of busy cycles (Cycle)
system.switch_cpus.exec_context.thread_0.notIdleFraction            1                       # Percentage of non-idle cycles (Ratio)
system.switch_cpus.exec_context.thread_0.idleFraction            0                       # Percentage of idle cycles (Ratio)
system.switch_cpus.executeStats0.numInsts            0                       # Number of executed instructions (Count)
system.switch_cpus.executeStats0.numNop             0                       # Number of nop insts executed (Count)
system.switch_cpus.executeStats0.numBranches            0                       # Number of branches executed (Count)
system.switch_cpus.executeStats0.numLoadInsts            0                       # Number of load instructions executed (Count)
system.switch_cpus.executeStats0.numStoreInsts      3283825                       # Number of stores executed (Count)
system.switch_cpus.executeStats0.instRate            0                       # Inst execution rate ((Count/Cycle))
system.switch_cpus.executeStats0.numFpAluAccesses     10770433                       # Number of float alu accesses (Count)
system.switch_cpus.executeStats0.numFpRegReads     18281587                       # Number of times the floating registers were read (Count)
system.switch_cpus.executeStats0.numFpRegWrites      9817268                       # Number of times the floating registers were written (Count)
system.switch_cpus.executeStats0.numIntAluAccesses      6604599                       # Number of integer alu accesses (Count)
system.switch_cpus.executeStats0.numIntRegReads      8230218                       # Number of times the integer registers were read (Count)
system.switch_cpus.executeStats0.numIntRegWrites      3230314                       # Number of times the integer registers were written (Count)
system.switch_cpus.executeStats0.numMemRefs      3283825                       # Number of memory refs (Count)
system.switch_cpus.executeStats0.numMiscRegReads      4070461                       # Number of times the Misc registers were read (Count)
system.switch_cpus.executeStats0.numVecAluAccesses            0                       # Number of vector alu accesses (Count)
system.switch_cpus.executeStats0.numDiscardedOps            0                       # Number of ops (including micro ops) which were discarded before commit (Count)
system.switch_cpus.fetchStats0.numInsts      10000001                       # Number of instructions fetched (thread level) (Count)
system.switch_cpus.fetchStats0.numOps        14543004                       # Number of ops (including micro ops) fetched (thread level) (Count)
system.switch_cpus.fetchStats0.fetchRate     0.527676                       # Number of inst fetches per cycle ((Count/Cycle))
system.switch_cpus.fetchStats0.numBranches       347435                       # Number of branches fetched (Count)
system.switch_cpus.fetchStats0.branchRate     0.018333                       # Number of branch fetches per cycle (Ratio)
system.switch_cpus.fetchStats0.numFetchSuspends            0                       # Number of times Execute suspended instruction fetching (Count)
system.switch_cpus.mmu.dtb.rdAccesses         2452853                       # TLB accesses on read requests (Count)
system.switch_cpus.mmu.dtb.wrAccesses          830972                       # TLB accesses on write requests (Count)
system.switch_cpus.mmu.dtb.rdMisses                45                       # TLB misses on read requests (Count)
system.switch_cpus.mmu.dtb.wrMisses                 0                       # TLB misses on write requests (Count)
system.switch_cpus.mmu.dtb.walker.power_state.pwrStateResidencyTicks::UNDEFINED   9475512000                       # Cumulative time (in ticks) in various power states (Tick)
system.switch_cpus.mmu.itb.rdAccesses               0                       # TLB accesses on read requests (Count)
system.switch_cpus.mmu.itb.wrAccesses        14408021                       # TLB accesses on write requests (Count)
system.switch_cpus.mmu.itb.rdMisses                 0                       # TLB misses on read requests (Count)
system.switch_cpus.mmu.itb.wrMisses                 0                       # TLB misses on write requests (Count)
system.switch_cpus.mmu.itb.walker.power_state.pwrStateResidencyTicks::UNDEFINED   9475512000                       # Cumulative time (in ticks) in various power states (Tick)
system.switch_cpus.power_state.pwrStateResidencyTicks::OFF   9475512000                       # Cumulative time (in ticks) in various power states (Tick)
system.switch_cpus.thread_0.numInsts                0                       # Number of Instructions committed (Count)
system.switch_cpus.thread_0.numOps                  0                       # Number of Ops committed (Count)
system.switch_cpus.thread_0.numMemRefs              0                       # Number of Memory References (Count)
system.voltage_domain.voltage                       1                       # Voltage in Volts (Volt)
system.workload.inst.arm                            0                       # number of arm instructions executed (Count)
system.workload.inst.quiesce                        0                       # number of quiesce instructions executed (Count)

---------- End Simulation Statistics   ----------
