gem5 Simulator System.  https://www.gem5.org
gem5 is copyrighted software; use the --copyright option for details.

gem5 version 23.0.0.1
gem5 compiled Oct 23 2023 04:25:40
gem5 started Dec 13 2023 03:27:39
gem5 executing on cpre581-base-f23, pid 105039
command line: /home/vm-user/gem5/build/X86/gem5.opt -d chkp19_test -r -e /home/vm-user/gem5/configs/deprecated/example/se.py --restore-simpoint-checkpoint --checkpoint-dir checkpoints -r 19 --cpu-type=NonCachingSimpleCPU --restore-with-cpu=X86NonCachingSimpleCPU -c namd.gcc43-64bit --options '--input namd.input --output namd.output --iterations 2'

Resuming from checkpoints/cpt.simpoint_18_inst_75739000000_weight_0.016838_interval_10000000_warmup_1000000
Resuming from SimPoint #18, start_inst:75739000000, weight:0.016838, interval:10000000, warmup:1000000
Global frequency set at 1000000000000 ticks per second
Switch at curTick count:10000
Switched CPUS @ tick 71017988501000
switching cpus
Warmed up! Dumping and resetting stats!
Done running SimPoint!
