gem5 Simulator System.  https://www.gem5.org
gem5 is copyrighted software; use the --copyright option for details.

gem5 version 23.0.0.1
gem5 compiled Oct 23 2023 04:25:40
gem5 started Dec 12 2023 02:54:12
gem5 executing on cpre581-base-f23, pid 88362
command line: /home/vm-user/gem5/build/X86/gem5.opt -d real_test_O3 -r -e /home/vm-user/gem5/configs/deprecated/example/se.py --cpu-type=DerivO3CPU --caches --cpu-clock=3GHz -c bzip2_base.gcc43-64bit --options 'input.program 5'

Global frequency set at 1000000000000 ticks per second
**** REAL SIMULATION ****
Exiting @ tick 4939138915668 because user interrupt received
